tests/data/case.raw
@!IC, SBASE,REV,XFRRAT,NXFRAT,BASFRQ
0,   100.00, 34,     0,     1, 50.00     / PSS(R)E-34.6    FRI, NOV 27 2020   8:46
VALLE DEL VERANO 20/21 DEMANDA SADI 13100 MW

GENERAL, THRSHZ=0.0001, PQBRAK=0.7, BLOWUP=5.0
GAUSS, ITMX=100, ACCP=1.6, ACCQ=1.6, ACCM=1.0, TOL=0.0001
NEWTON, ITMXN=20, ACCN=1.0, TOLN=0.2, VCTOLQ=0.1, VCTOLV=0.00001, DVLIM=0.99, NDVFCT=0.99
ADJUST, ADJTHR=0.005, ACCTAP=1.0, TAPLIM=0.05, SWVBND=100.0, MXTPSS=99, MXSWIM=10
TYSL, ITMXTY=20, ACCTY=1.0, TOLTY=0.00001
SOLVER, FNSL, ACTAPS=1, AREAIN=0, PHSHFT=0, DCTAPS=1, SWSHNT=1, FLATST=0, VARLIM=99, NONDIV=0
RATING, 1, "RATE1 ", "RATING SET 1                    "
RATING, 2, "RATE2 ", "RATING SET 2                    "
RATING, 3, "RATE3 ", "RATING SET 3                    "
RATING, 4, "RATE4 ", "RATING SET 4                    "
RATING, 5, "RATE5 ", "RATING SET 5                    "
RATING, 6, "RATE6 ", "RATING SET 6                    "
RATING, 7, "RATE7 ", "RATING SET 7                    "
RATING, 8, "RATE8 ", "RATING SET 8                    "
RATING, 9, "RATE9 ", "RATING SET 9                    "
RATING,10, "RATE10", "RATING SET 10                   "
RATING,11, "RATE11", "RATING SET 11                   "
RATING,12, "RATE12", "RATING SET 12                   "
0 / END OF SYSTEM-WIDE DATA, BEGIN BUS DATA
@!   I,'NAME        ', BASKV, IDE,AREA,ZONE,OWNER, VM,        VA,    NVHI,   NVLO,   EVHI,   EVLO
    10,'NPMADRYN    ', 500.0000,1,  21,   6,  10,1.01258,   0.2272,1.10000,0.90000,1.10000,0.90000
    11,'NPMD.CHL    ', 500.0000,1,  21,   6,  10,0.96647,   7.2128,1.10000,0.90000,1.10000,0.90000
    12,'SCN_500     ', 500.0000,1,  21,   6,  10,0.99909,   6.8119,1.10000,0.90000,1.10000,0.90000
    15,'RSCRUZ      ', 500.0000,1,  21,   6,  10,1.00727,   6.2259,1.10000,0.90000,1.10000,0.90000
    19,'ESPERANZ    ', 500.0000,1,  21,   6,  10,1.00634,   6.0084,1.10000,0.90000,1.10000,0.90000
    20,'GARACCB1    ', 525.0000,4,  20,  49,  10,1.00000,   0.0000,1.10000,0.90000,1.10000,0.90000
    22,'GARACCB2    ', 525.0000,4,  20,  49,  10,1.00000,   0.0000,1.10000,0.90000,1.10000,0.90000
    30,'ITA         ', 525.0000,4,  20,  49,  10,1.00000,   0.0000,1.10000,0.90000,1.10000,0.90000
    85,'FOZ-500-50HZ', 500.0000,1,  20,  50,  10,0.99391,  -0.9312,1.10000,0.90000,1.10000,0.90000
    86,'IBIUNA---345', 345.0000,1,  20,  50,  10,1.03939,   6.3902,1.10000,0.90000,1.10000,0.90000
    87,'BRASIL      ', 345.0000,3,  20,  50,  10,1.05000,   0.0000,1.10000,0.90000,1.10000,0.90000
   100,'FUTAL330    ', 330.0000,1,  21,  59,  10,1.02992,   7.3139,1.10000,0.90000,1.10000,0.90000
   102,'FUTAHI01    ',  13.8000,2,  21,  59,   6,0.99522,  10.8090,1.10000,0.90000,1.10000,0.90000
   104,'FUTAHI02    ',  13.8000,2,  21,  59,   6,0.99522,  10.8090,1.10000,0.90000,1.10000,0.90000
   106,'FUTAHI03    ',  13.8000,2,  21,  59,   6,1.02992,   7.3139,1.10000,0.90000,1.10000,0.90000
   108,'FUTAHI04    ',  13.8000,2,  21,  59,   6,1.02992,   7.3139,1.10000,0.90000,1.10000,0.90000
   115,'R.TURBIO    ', 220.0000,1,  21,  53,   1,1.01988,   5.0855,1.10000,0.90000,1.10000,0.90000
   117,'ESPERANZ    ', 220.0000,1,  21,   6,   1,1.01073,   5.4008,1.10000,0.90000,1.10000,0.90000
   118,'RGALLEGO    ', 220.0000,1,  21,  53,   1,1.01732,   4.7739,1.10000,0.90000,1.10000,0.90000
   190,'ALTG09CC    ',  10.5000,2,  21,  58,   8,1.02985,   0.7871,1.10000,0.90000,1.10000,0.90000
   191,'ALTG10CC    ',  10.5000,2,  21,  58,   8,1.02985,   0.7871,1.10000,0.90000,1.10000,0.90000
   192,'ALTV11CC    ',  10.5000,2,  21,  58,   8,1.02985,   0.7871,1.10000,0.90000,1.10000,0.90000
   193,'SERIE DT    ', 132.0000,1,  21,  58,   2,1.00000,  -3.3156,1.10000,0.90000,1.10000,0.90000
   200,'PMADR330    ', 330.0000,1,  21,  51,   1,1.01397,  -0.7608,1.10000,0.90000,1.10000,0.90000
   201,'AL-FIAT1    ',  13.2000,4,  21,  58,   4,1.00000,   0.0000,1.10000,0.90000,1.10000,0.90000
   202,'AL-FIAT2    ',  13.2000,4,  21,  58,   4,1.00000,   0.0000,1.10000,0.90000,1.10000,0.90000
   203,'AL-FIAT3    ',  13.2000,4,  21,  58,   4,1.00000,   0.0000,1.10000,0.90000,1.10000,0.90000
   204,'AL-FIAT4    ',  13.2000,4,  21,  58,   4,1.00000,   0.0000,1.10000,0.90000,1.10000,0.90000
   205,'ALUATG05    ',  11.0000,4,  21,  58,   4,1.00000,   0.0000,1.10000,0.90000,1.10000,0.90000
   206,'ALUATG06    ',  11.0000,4,  21,  58,   4,1.00000,   0.0000,1.10000,0.90000,1.10000,0.90000
   207,'ALUATG07    ',  11.0000,2,  21,  58,   8,1.02141,  -9.0009,1.10000,0.90000,1.10000,0.90000
   208,'ALUATG08    ',  11.0000,2,  21,  58,   8,1.02141,  -9.0009,1.10000,0.90000,1.10000,0.90000
   209,'ALUATV01    ',  11.0000,2,  21,  58,   8,1.02141,  -9.0009,1.10000,0.90000,1.10000,0.90000
   210,'APPA330A    ', 330.0000,1,  21,  58,   2,1.01310,  -0.8753,1.10000,0.90000,1.10000,0.90000
   211,'APPA330B    ', 330.0000,1,  21,  58,   2,1.01311,  -0.8626,1.10000,0.90000,1.10000,0.90000
   212,'AL-CE0A2    ',  33.0000,1,  21,  58,   2,1.02141,  -9.0009,1.10000,0.90000,1.10000,0.90000
   213,'APPA330C    ', 330.0000,1,  21,  58,   2,1.01311,  -0.8626,1.10000,0.90000,1.10000,0.90000
   214,'AL-CE0B     ',  33.0000,4,  21,  58,   2,1.00000,   0.0000,1.10000,0.90000,1.10000,0.90000
   216,'AL-CE0A4    ',  33.0000,1,  21,  58,   2,1.02141,  -9.0009,1.10000,0.90000,1.10000,0.90000
   217,'AL-CE0A5    ',  33.0000,1,  21,  58,   2,1.02141,  -9.0009,1.10000,0.90000,1.10000,0.90000
   218,'AL-CE0A3    ',  33.0000,1,  21,  58,   2,1.02141,  -9.0009,1.10000,0.90000,1.10000,0.90000
   219,'AEG         ',  13.2000,2,  21,  58,   4,1.02141,  -9.0009,1.10000,0.90000,1.10000,0.90000
   220,'PMADRYN1    ', 132.0000,1,  21,  51,   1,1.01149,   1.7675,1.10000,0.90000,1.10000,0.90000
   221,'PMADRYN2    ', 132.0000,1,  21,  51,  10,0.99756,   6.2153,1.10000,0.90000,1.10000,0.90000
   222,'AL-CE0A1    ',  33.0000,1,  21,  58,   2,1.00132,  -3.0493,1.10000,0.90000,1.10000,0.90000
   223,'LB ESTE     ', 132.0000,1,  21,  51,  10,1.00480,   9.1894,1.10000,0.90000,1.10000,0.90000
   224,'NPMAD330    ', 330.0000,1,  21,  51,  10,1.01408,  -0.7564,1.10000,0.90000,1.10000,0.90000
   226,'LB OESTE    ', 132.0000,1,  21,  51,  10,1.00391,   8.7763,1.10000,0.90000,1.10000,0.90000
   227,'SERV AUX    ',  33.0000,1,  21,  58,   2,1.02141,  -9.0009,1.10000,0.90000,1.10000,0.90000
   230,'DGPAL132    ', 132.0000,1,  21,  51,  10,1.00709,   2.4271,1.10000,0.90000,1.10000,0.90000
   240,'TRELW132    ', 132.0000,1,  21,  51,  10,0.98581,  11.4796,1.10000,0.90000,1.10000,0.90000
   242,'TREW13.2    ',  13.2000,2,  21,  51,   1,0.97360,  10.0079,1.10000,0.90000,1.10000,0.90000
   243,'RAWSON      ', 132.0000,1,  21,  51,   1,0.98728,  12.7595,1.10000,0.90000,1.10000,0.90000
   244,'TRELEW33    ',  33.0000,1,  21,  51,   1,0.97594,  10.2927,1.10000,0.90000,1.10000,0.90000
   246,'PE_PMADR    ', 132.0000,1,  21,  51,  10,1.00067,   7.1043,1.10000,0.90000,1.10000,0.90000
   250,'AMEGH132    ', 132.0000,1,  21,  51,   1,1.00223,  20.8179,1.10000,0.90000,1.10000,0.90000
   251,'AMEGHI01    ',  13.2000,2,  21,  51,   6,1.00000,  22.8192,1.10000,0.90000,1.10000,0.90000
   252,'AMEGHI02    ',  13.2000,4,  21,  51,   6,1.00000,   0.0000,1.10000,0.90000,1.10000,0.90000
   253,'PE_ALUAR    ', 132.0000,1,  21,  58,  10,1.00352,  -1.8681,1.10000,0.90000,1.10000,0.90000
   254,'ALUA33_01   ',  33.0000,1,  21,  58,  10,0.99972,   1.5519,1.10000,0.90000,1.10000,0.90000
   255,'ALUAR33_03  ',  33.0000,1,  21,  58,  10,0.99855,   1.6668,1.10000,0.90000,1.10000,0.90000
   256,'ALUA33_02   ',  33.0000,1,  21,  58,  10,1.00211,   1.7088,1.10000,0.90000,1.10000,0.90000
   257,'ALUAR33_04  ',  33.0000,1,  21,  58,  10,1.00185,   1.8503,1.10000,0.90000,1.10000,0.90000
   258,'PER-132     ', 132.0000,1,  21,  51,   1,0.98783,  13.4043,1.10000,0.90000,1.10000,0.90000
   259,'AL-CEB      ', 132.0000,1,  21,  58,   2,1.00000,  -3.3156,1.10000,0.90000,1.10000,0.90000
   261,'AL-CEA      ', 132.0000,1,  21,  58,   2,1.00000,  -3.3156,1.10000,0.90000,1.10000,0.90000
   264,'FUTAL132    ', 132.0000,1,  21,  59,  10,1.02914,   6.9464,1.10000,0.90000,1.10000,0.90000
   265,'AL-CEB0C    ',  33.0000,1,  21,  58,   2,1.00132,  -3.0493,1.10000,0.90000,1.10000,0.90000
   266,'ESQUE132    ', 132.0000,1,  21,  59,  10,1.02840,   6.7826,1.10000,0.90000,1.10000,0.90000
   268,'SERIE AT    ', 132.0000,1,  21,  58,   2,1.00000,  -3.3156,1.10000,0.90000,1.10000,0.90000
   269,'SERIE BT    ', 132.0000,1,  21,  58,   2,1.00000,  -3.3156,1.10000,0.90000,1.10000,0.90000
   271,'ELCOIHUE    ', 132.0000,1,  21,  59,   1,1.02320,   6.9013,1.10000,0.90000,1.10000,0.90000
   272,'CHUBUNOR2   ', 132.0000,1,  21,  51,  10,0.99999,   7.1271,1.10000,0.90000,1.10000,0.90000
   273,'PMADRYN2    ', 132.0000,1,  21,  51,  10,0.99756,   6.2153,1.10000,0.90000,1.10000,0.90000
   275,'LB          ', 132.0000,1,  21,  51,  10,1.00492,   9.4982,1.10000,0.90000,1.10000,0.90000
   280,'GOLONDRI    ',  13.2000,1,  21,  59,  10,1.02336,   7.5324,1.10000,0.90000,1.10000,0.90000
   281,'LIMRN-CH    ',  13.2000,1,  21,  59,  10,0.98397,   7.4365,1.10000,0.90000,1.10000,0.90000
   282,'ELBOLSON    ',  13.2000,1,  21,  59,   1,0.95460,   7.3599,1.10000,0.90000,1.10000,0.90000
   300,'SGRAN132    ', 132.0000,1,  21,  51,   1,1.02285,  -0.4787,1.10000,0.90000,1.10000,0.90000
   304,'SGRA13.2    ',  13.2000,4,  21,  51,   4,1.00000,   0.0000,1.10000,0.90000,1.10000,0.90000
   310,'PCOLO132    ', 132.0000,1,  21,  51,  10,1.02315,  -0.5064,1.10000,0.90000,1.10000,0.90000
   311,'MALASPINA   ', 132.0000,1,  21,  51,  10,1.02122,  31.6600,1.10000,0.90000,1.10000,0.90000
   315,'RSCRUZ      ', 132.0000,1,  21,  53,   1,1.03420,   6.0938,1.10000,0.90000,1.10000,0.90000
   316,'S.JULIAN    ', 132.0000,4,  21,  53,   1,1.00000,   0.0000,1.10000,0.90000,1.10000,0.90000
   317,'M.ESPEJO    ', 132.0000,4,  21,  53,   1,1.00000,   0.0000,1.10000,0.90000,1.10000,0.90000
   318,'GREGORES    ', 132.0000,4,  21,  53,   1,1.00000,   0.0000,1.10000,0.90000,1.10000,0.90000
   320,'SANOE132    ', 132.0000,1,  21,  51,   1,1.01758,  -2.1569,1.10000,0.90000,1.10000,0.90000
   322,'SANES132    ', 132.0000,1,  21,  51,   1,1.01550,  -2.4197,1.10000,0.90000,1.10000,0.90000
   330,'VIEDM132    ', 132.0000,1,  21,  51,   1,0.98818,  -3.5082,1.10000,0.90000,1.10000,0.90000
   332,'VIED13.2    ',  13.2000,1,  21,  51,   1,0.99654,  -5.1027,1.10000,0.90000,1.10000,0.90000
   334,'VIEDMA33    ',  33.0000,1,  21,  51,  10,0.99750,  -4.5422,1.10000,0.90000,1.10000,0.90000
   400,'C.RIV.A1    ', 132.0000,1,  21,  52,  10,1.01938,  31.5685,1.10000,0.90000,1.10000,0.90000
   401,'C.RIV.A     ', 132.0000,1,  21,  52,  10,1.01936,  31.5667,1.10000,0.90000,1.10000,0.90000
   402,'GARAYALDE   ', 132.0000,1,  21,  51,  10,1.01711,  29.7331,1.10000,0.90000,1.10000,0.90000
   403,'HERCULES    ', 132.0000,1,  21,  52,  10,1.02135,  14.8048,1.10000,0.90000,1.10000,0.90000
   404,'ESCALANT    ', 132.0000,1,  21,  52,  10,1.02046,  34.6491,1.10000,0.90000,1.10000,0.90000
   405,'PE_MBEHR    ', 132.0000,1,  21,  52,  10,1.02129,  36.3145,1.10000,0.90000,1.10000,0.90000
   406,'CRIVTG26    ',  13.2000,2,  21,  52,   4,1.01936,  31.5667,1.10000,0.90000,1.10000,0.90000
   407,'GARA33_01   ',  33.0000,1,  21,  51,  10,1.00646,  33.2312,1.10000,0.90000,1.10000,0.90000
   408,'C.RIV.A1    ',  10.4000,1,  21,  52,   1,1.01037,  30.6413,1.10000,0.90000,1.10000,0.90000
   409,'CRIVTG21    ',  10.4000,2,  21,  52,   4,1.01037,  30.6413,1.10000,0.90000,1.10000,0.90000
   410,'C.RIV.A1    ',  66.0000,2,  21,  52,   1,1.01138,  31.9200,1.10000,0.90000,1.10000,0.90000
   413,'BICE33_02   ',  33.0000,1,  21,  51,  10,1.01344,  25.8472,1.10000,0.90000,1.10000,0.90000
   415,'GARA13_01   ',  13.2000,1,  21,  51,  10,1.00583,  33.4893,1.10000,0.90000,1.10000,0.90000
   416,'SEBER1      ',  66.0000,1,  21,  52,   1,1.01219,  33.0549,1.10000,0.90000,1.10000,0.90000
   417,'SEBER1_35   ',  35.0000,1,  21,  52,  10,0.99355,  34.5750,1.10000,0.90000,1.10000,0.90000
   418,'SEBER2      ',  35.0000,1,  21,  52,   1,0.99412,  34.9361,1.10000,0.90000,1.10000,0.90000
   420,'C.RIV.A1    ',  33.0000,2,  21,  52,   1,1.01374,  30.8641,1.10000,0.90000,1.10000,0.90000
   422,'CRIVTG23    ',  13.8000,2,  21,  52,   4,1.01256,  30.6446,1.10000,0.90000,1.10000,0.90000
   423,'MB_ALL_35   ',  35.0000,1,  21,  52,  10,0.99412,  34.9361,1.10000,0.90000,1.10000,0.90000
   424,'MB_JEN_35   ',  35.0000,1,  21,  52,  10,0.99412,  34.9361,1.10000,0.90000,1.10000,0.90000
   437,'CRIVTG78    ',  13.8000,2,  21,  52,   8,1.01936,  31.5667,1.10000,0.90000,1.10000,0.90000
   438,'CRIVTV25    ',  13.8000,2,  21,  52,   8,1.01936,  31.5667,1.10000,0.90000,1.10000,0.90000
   440,'VHERM132    ', 132.0000,2,  21,  52,   1,1.01270,  34.3695,1.10000,0.90000,1.10000,0.90000
   441,'SAN JOSE    ', 132.0000,1,  21,  52,   1,0.98773,  12.7623,1.10000,0.90000,1.10000,0.90000
   442,'CNEGR132    ', 132.0000,2,  21,  52,   1,1.00903,  34.1532,1.10000,0.90000,1.10000,0.90000
   444,'PAMCA132    ', 132.0000,2,  21,  52,   1,1.01634,  34.6735,1.10000,0.90000,1.10000,0.90000
   445,'TORDI132    ', 132.0000,2,  21,  52,   1,1.01551,  34.6301,1.10000,0.90000,1.10000,0.90000
   446,'LPER1132    ', 132.0000,1,  21,  52,   1,1.02110,  17.4381,1.10000,0.90000,1.10000,0.90000
   447,'LPER2132    ', 132.0000,4,  21,  52,   1,1.00000,   0.0000,1.10000,0.90000,1.10000,0.90000
   448,'LASHE132    ', 132.0000,2,  21,  52,   1,1.00263,  14.7344,1.10000,0.90000,1.10000,0.90000
   449,'DIADEMA     ', 132.0000,1,  21,  52,   1,1.02149,  33.9883,1.10000,0.90000,1.10000,0.90000
   450,'BSM132R     ', 132.0000,2,  21,  52,   1,1.01960,  32.3323,1.10000,0.90000,1.10000,0.90000
   451,'DIAD33_01   ',  33.0000,1,  21,  52,  10,0.98581,  37.0164,1.10000,0.90000,1.10000,0.90000
   453,'DIADEO01    ',   0.4000,2,  21,  52,  11,1.03000,  38.5587,1.10000,0.90000,1.10000,0.90000
   454,'C.OLIVIA    ', 132.0000,1,  21,  52,   1,1.03591,  14.5759,1.10000,0.90000,1.10000,0.90000
   455,'AIKE        ', 132.0000,1,  21,  52,   1,0.99102,  13.1907,1.10000,0.90000,1.10000,0.90000
   456,'ABASOLO     ', 132.0000,1,  21,  52,   1,1.02042,  32.3845,1.10000,0.90000,1.10000,0.90000
   457,'OROPLATA    ', 132.0000,1,  21,  52,   1,0.97907,  11.9100,1.10000,0.90000,1.10000,0.90000
   458,'C.LEON      ', 132.0000,1,  21,  52,  10,1.03570,  14.5806,1.10000,0.90000,1.10000,0.90000
   459,'PT1-132R    ', 132.0000,2,  21,  52,   1,1.03446,  12.1497,1.10000,0.90000,1.10000,0.90000
   460,'PT1-132M    ', 132.0000,1,  21,  52,   1,1.03446,  12.1497,1.10000,0.90000,1.10000,0.90000
   461,'SCN_132     ', 132.0000,1,  21,  52,  10,1.03591,  11.8880,1.10000,0.90000,1.10000,0.90000
   462,'PTRUN235    ',  35.0000,1,  21,  52,   1,1.01300,  12.9373,1.10000,0.90000,1.10000,0.90000
   463,'PTRUN35R    ',  35.0000,2,  21,  52,   1,1.01300,  12.9373,1.10000,0.90000,1.10000,0.90000
   464,'PTR1TG24    ',  13.8000,2,  21,  52,   4,0.97374,  12.9590,1.10000,0.90000,1.10000,0.90000
   465,'K.KAIKE     ', 132.0000,1,  21,  52,  10,1.02776,  13.4790,1.10000,0.90000,1.10000,0.90000
   466,'PTR1TG25    ',  10.5000,2,  21,  52,   4,0.97352,  12.9747,1.10000,0.90000,1.10000,0.90000
   467,'PCR         ', 132.0000,1,  21,  52,   1,1.03432,  12.2902,1.10000,0.90000,1.10000,0.90000
   468,'PTR1TG23    ',  10.5000,2,  21,  52,   4,1.01300,  12.9373,1.10000,0.90000,1.10000,0.90000
   470,'PT2--132    ', 132.0000,1,  21,  52,  10,1.03456,  12.1475,1.10000,0.90000,1.10000,0.90000
   472,'PT2-6.9     ',  35.0000,1,  21,  52,   1,1.03456,  12.1475,1.10000,0.90000,1.10000,0.90000
   474,'ELCORDON    ',  35.0000,1,  21,  52,   1,1.03062,  16.1750,1.10000,0.90000,1.10000,0.90000
   475,'HUEMUL      ',  35.0000,4,  21,  52,   1,1.00000,   0.0000,1.10000,0.90000,1.10000,0.90000
   476,'HUEMDI01    ',   0.4000,4,  21,  52,   1,1.00000,   0.0000,1.10000,0.90000,1.10000,0.90000
   477,'MESESPI     ',  35.0000,1,  21,  52,   1,1.03518,  18.7446,1.10000,0.90000,1.10000,0.90000
   478,'MESEDI01    ',   0.4000,2,  21,  52,   4,1.00000,  24.9062,1.10000,0.90000,1.10000,0.90000
   479,'SCN_TER1    ',  33.0000,1,  21,   6,  10,1.04090,  11.4290,1.10000,0.90000,1.10000,0.90000
   480,'PDES132M    ', 132.0000,1,  21,  52,   1,1.03527,  21.1738,1.10000,0.90000,1.10000,0.90000
   481,'PDES132R    ', 132.0000,4,  21,  52,   1,1.00000,   0.0000,1.10000,0.90000,1.10000,0.90000
   482,'C.MORO      ', 132.0000,4,  21,  52,   1,1.00000,   0.0000,1.10000,0.90000,1.10000,0.90000
   483,'PS.A.BIEDMA ', 132.0000,1,  21,  52,   1,1.03647,  21.3322,1.10000,0.90000,1.10000,0.90000
   484,'SCN_TER2    ',  33.0000,1,  21,   6,  10,1.04008,  11.5037,1.10000,0.90000,1.10000,0.90000
   490,'CTPAT132    ', 132.0000,1,  21,  52,  10,1.02120,  32.4414,1.10000,0.90000,1.10000,0.90000
   491,'PATATG01    ',  11.5000,2,  21,  52,   8,1.03000,  36.1143,1.10000,0.90000,1.10000,0.90000
   492,'PATATG02    ',  11.5000,2,  21,  52,   8,1.02120,  32.4414,1.10000,0.90000,1.10000,0.90000
   493,'PATATV01    ',  11.5000,2,  21,  52,   8,1.03000,  33.6207,1.10000,0.90000,1.10000,0.90000
   494,'CHUBUNOR    ', 132.0000,1,  21,  51,  10,1.01226,   2.6729,1.10000,0.90000,1.10000,0.90000
   495,'PEBICENT    ', 132.0000,1,  21,  52,  10,1.03422,  21.6127,1.10000,0.90000,1.10000,0.90000
   500,'HERC33_1    ',  33.0000,1,  21,   6,  10,1.00867,  17.6296,1.10000,0.90000,1.10000,0.90000
   501,'PM33_01     ',  33.0000,1,  21,   6,  10,1.01215,  -0.8583,1.10000,0.90000,1.10000,0.90000
   502,'HERC33_2    ',  33.0000,1,  21,   6,  10,1.00867,  17.6296,1.10000,0.90000,1.10000,0.90000
   503,'HERC13_1    ',  13.2000,1,  21,   6,  10,1.00764,  17.8898,1.10000,0.90000,1.10000,0.90000
   504,'RSCRUZ      ',  33.0000,1,  21,   6,   1,1.03412,   6.0796,1.10000,0.90000,1.10000,0.90000
   505,'HERC13_2    ',  13.2000,1,  21,   6,  10,1.00764,  17.8898,1.10000,0.90000,1.10000,0.90000
   506,'KKAI33_1    ',  33.0000,4,  21,  52,  11,1.00000,   0.0000,1.10000,0.90000,1.10000,0.90000
   508,'LBVI33_02   ',  33.0000,1,  21,  51,  10,0.99904,  14.0003,1.10000,0.90000,1.10000,0.90000
   510,'PM33_02     ',  33.0000,1,  21,  51,  10,1.01428,   1.4446,1.10000,0.90000,1.10000,0.90000
   511,'PM33_01     ',  33.0000,1,  21,  51,  10,1.01030,   1.9065,1.10000,0.90000,1.10000,0.90000
   512,'C.LEON33_01 ',  33.0000,1,  21,  52,  10,1.01317,  17.5725,1.10000,0.90000,1.10000,0.90000
   513,'C.LEON33_02 ',  33.0000,1,  21,  52,  10,1.01484,  18.3497,1.10000,0.90000,1.10000,0.90000
   514,'CRITER10    ',  13.2000,1,  21,  52,  10,1.01012,  31.9760,1.10000,0.90000,1.10000,0.90000
   515,'CRITER11    ',  13.2000,1,  21,  52,  10,1.01053,  31.9575,1.10000,0.90000,1.10000,0.90000
   516,'ESQ1.TER    ',  13.2000,1,  21,  59,  10,1.01882,   5.0738,1.10000,0.90000,1.10000,0.90000
   517,'BICE33_01   ',  33.0000,1,  21,  51,  10,1.01026,  25.6223,1.10000,0.90000,1.10000,0.90000
   518,'FUTA33_01   ',  33.0000,4,  21,  59,  10,1.00000,   0.0000,1.10000,0.90000,1.10000,0.90000
   519,'KOST33_01   ',  33.0000,1,  21,  52,  10,1.00305,  37.1990,1.10000,0.90000,1.10000,0.90000
   520,'ESQUEL33    ',  33.0000,1,  21,  59,   1,1.01911,   5.1283,1.10000,0.90000,1.10000,0.90000
   521,'BICE33_03   ',  33.0000,1,  21,  51,  10,1.01447,  25.8623,1.10000,0.90000,1.10000,0.90000
   522,'ELCOIHUE    ',  33.0000,1,  21,  59,   1,0.98834,   6.8402,1.10000,0.90000,1.10000,0.90000
   523,'RTURTV01    ',  11.0000,4,  21,  53,   5,1.00000,   0.0000,1.10000,0.90000,1.10000,0.90000
   524,'GOLONDRI    ',  33.0000,1,  21,  59,   1,0.98179,   8.6650,1.10000,0.90000,1.10000,0.90000
   525,'RTURTV02    ',  11.0000,4,  21,  53,   5,1.00000,   0.0000,1.10000,0.90000,1.10000,0.90000
   526,'CHNO33_01   ',  33.0000,1,  21,  51,  10,1.00394,   5.3020,1.10000,0.90000,1.10000,0.90000
   527,'ELBOLSON    ',  33.0000,1,  21,  59,  10,1.00556,   9.3294,1.10000,0.90000,1.10000,0.90000
   528,'R.ESCONDIDO ',  33.0000,1,  21,  59,  10,1.02569,  11.5579,1.10000,0.90000,1.10000,0.90000
   532,'LBVI33_03   ',  33.0000,1,  21,  51,  10,1.00147,  14.1736,1.10000,0.90000,1.10000,0.90000
   533,'PEM33_01    ',  33.0000,1,  21,  51,  10,1.00000,  10.2550,1.10000,0.90000,1.10000,0.90000
   542,'PM33_02     ',  33.0000,1,  21,  51,  10,0.99684,   6.7007,1.10000,0.90000,1.10000,0.90000
   544,'DIAD33_02   ',  33.0000,1,  21,  52,  10,0.98581,  37.0164,1.10000,0.90000,1.10000,0.90000
   545,'ESP.TER1    ',  33.0000,1,  21,   6,   1,0.99966,   5.3520,1.10000,0.90000,1.10000,0.90000
   546,'ESP.TER2    ',  33.0000,1,  21,   6,   1,1.06526,   5.0503,1.10000,0.90000,1.10000,0.90000
   547,'RGALLEGO    ',  33.0000,4,  21,  53,   1,1.00000,   0.0000,1.10000,0.90000,1.10000,0.90000
   548,'RGA.TER1    ',  13.2000,4,  21,  53,   1,1.00000,   0.0000,1.10000,0.90000,1.10000,0.90000
   549,'KOST33_02   ',  33.0000,1,  21,  52,  10,1.01102,  37.4564,1.10000,0.90000,1.10000,0.90000
   550,'CHNO33_02   ',  33.0000,1,  21,  51,  10,1.01111,   5.6392,1.10000,0.90000,1.10000,0.90000
   551,'MALAS33_01  ',  33.0000,1,  21,  51,  10,1.00364,  34.7443,1.10000,0.90000,1.10000,0.90000
   552,'MALAS33_02  ',  33.0000,1,  21,  51,  10,1.00653,  34.9515,1.10000,0.90000,1.10000,0.90000
   553,'DIAD33_03   ',  33.0000,1,  21,  52,  10,0.99282,  37.4592,1.10000,0.90000,1.10000,0.90000
   554,'SCN_TER3    ',  33.0000,1,  21,   6,  10,1.04090,  11.4290,1.10000,0.90000,1.10000,0.90000
...
0 / END OF BUS DATA, BEGIN LOAD DATA
@!   I,'ID',STAT,AREA,ZONE,      PL,        QL,        IP,        IQ,        YP,        YQ, OWNER,SCALE,INTRPT,  DGENP,     DGENQ, DGENF
    85,'1 ',   1,  20,  50,    60.000,     0.000,     0.000,     0.000,     0.000,     0.000,   1,    1,  0,     0.000,     0.000,   0
    86,'1 ',   1,  20,  50,    66.000,     0.000,     0.000,     0.000,     0.000,     0.000,   1,    1,  0,     0.000,     0.000,   0
   115,'1 ',   1,  21,  53,     2.158,     0.944,     0.000,     0.000,     0.000,     0.000,   1,    1,  0,     0.000,     0.000,   0
   118,'1 ',   1,  21,  53,    13.607,     0.925,     0.000,     0.000,     0.000,     0.000,   1,    1,  0,     0.000,     0.000,   0
   193,'1 ',   1,  21,  58,   240.000,   131.000,     0.000,     0.000,     0.000,     0.000,   2,    0,  0,     0.000,     0.000,   0
   214,'1 ',   1,  21,  58,    72.000,    40.800,     0.000,     0.000,     0.000,     0.000,   2,    0,  0,     0.000,     0.000,   0
   217,'1 ',   1,  21,  58,   102.000,    60.300,     0.000,     0.000,     0.000,     0.000,   2,    0,  0,     0.000,     0.000,   0
   222,'1 ',   0,  21,  58,    72.000,    40.800,     0.000,     0.000,     0.000,     0.000,   2,    0,  0,     0.000,     0.000,   0
   227,'1 ',   1,  21,  58,    26.000,    12.600,     0.000,     0.000,     0.000,     0.000,   3,    0,  0,     0.000,     0.000,   0
   230,'1 ',   1,  21,  51,    13.772,     5.086,     0.000,     0.000,     0.000,     0.000,   1,    1,  0,     0.000,     0.000,   0
   242,'1 ',   0,  21,  51,     5.458,     2.797,     0.000,     0.000,     0.000,     0.000,   1,    1,  0,     0.000,     0.000,   0
   242,'2 ',   0,  21,  51,    12.621,     5.964,     0.000,     0.000,     0.000,     0.000,   1,    1,  0,     0.000,     0.000,   0
   242,'3 ',   1,  21,  51,     5.482,     2.655,     0.000,     0.000,     0.000,     0.000,   1,    1,  0,     0.000,     0.000,   0
   243,'1 ',   1,  21,  51,     6.467,     1.440,     0.000,     0.000,     0.000,     0.000,   1,    1,  0,     0.000,     0.000,   0
   244,'1 ',   1,  21,  51,    11.672,     5.416,     0.000,     0.000,     0.000,     0.000,   1,    1,  0,     0.000,     0.000,   0
   250,'1 ',   1,  21,  51,     0.343,     0.145,     0.000,     0.000,     0.000,     0.000,   1,    1,  0,     0.000,     0.000,   0
   250,'2 ',   0,  21,  51,     0.000,     0.000,     0.000,     0.000,     0.000,     0.000,   1,    1,  0,     0.000,     0.000,   0
   259,'1 ',   1,  21,  58,    20.000,    11.000,     0.000,     0.000,     0.000,     0.000,   3,    0,  0,     0.000,     0.000,   0
   265,'1 ',   0,  21,  58,    72.000,    40.800,     0.000,     0.000,     0.000,     0.000,   2,    0,  0,     0.000,     0.000,   0
   268,'1 ',   1,  21,  58,   180.000,   115.300,     0.000,     0.000,     0.000,     0.000,   2,    0,  0,     0.000,     0.000,   0
   269,'1 ',   1,  21,  58,   180.000,   115.300,     0.000,     0.000,     0.000,     0.000,   2,    0,  0,     0.000,     0.000,   0
   282,'1 ',   1,  21,  52,     1.220,     0.587,     0.000,     0.000,     0.000,     0.000,   1,    1,  0,     0.000,     0.000,   0
   300,'1 ',   1,  21,  26,     0.799,     0.317,     0.000,     0.000,     0.000,     0.000,   1,    1,  0,     0.000,     0.000,   0
   310,'1 ',   1,  21,  26,     0.430,     0.140,     0.000,     0.000,     0.000,     0.000,   2,    0,  0,     0.000,     0.000,   0
   315,'1 ',   1,  21,  53,     0.958,     0.297,     0.000,     0.000,     0.000,     0.000,   1,    1,  0,     0.000,     0.000,   0
   315,'2 ',   1,  21,  53,     0.958,     0.297,     0.000,     0.000,     0.000,     0.000,   1,    1,  0,     0.000,     0.000,   0
   316,'1 ',   0,  21,  53,     4.833,     1.450,     0.000,     0.000,     0.000,     0.000,   1,    1,  0,     0.000,     0.000,   0
   317,'1 ',   0,  21,  53,    10.000,     3.000,     0.000,     0.000,     0.000,     0.000,   2,    0,  0,     0.000,     0.000,   0
   318,'1 ',   0,  21,  53,     1.878,     0.564,     0.000,     0.000,     0.000,     0.000,   1,    1,  0,     0.000,     0.000,   0
   320,'1 ',   1,  21,  26,     2.398,     0.786,     0.000,     0.000,     0.000,     0.000,   1,    1,  0,     0.000,     0.000,   0
   322,'1 ',   1,  21,  26,     2.801,     0.568,     0.000,     0.000,     0.000,     0.000,   1,    1,  0,     0.000,     0.000,   0
   332,'1 ',   1,  21,  26,     6.638,     3.217,     0.000,     0.000,     0.000,     0.000,   1,    1,  0,     0.000,     0.000,   0
   405,'1 ',   0,  21,  52,    33.888,    11.263,     0.000,     0.000,     0.000,     0.000,   2,    0,  0,     0.000,     0.000,   0
   408,'1 ',   0,  21,  52,     0.000,     0.000,     0.000,     0.000,     0.000,     0.000,   1,    1,  0,     0.000,     0.000,   0
   409,'1 ',   1,  21,  52,     3.253,     2.110,     0.000,     0.000,     0.000,     0.000,   1,    1,  0,     0.000,     0.000,   0
   409,'2 ',   1,  21,  52,     3.253,     2.110,     0.000,     0.000,     0.000,     0.000,   1,    1,  0,     0.000,     0.000,   0
   409,'3 ',   0,  21,  52,     2.207,     0.617,     0.000,     0.000,     0.000,     0.000,   1,    1,  0,     0.000,     0.000,   0
   410,'1 ',   1,  21,  52,     0.132,     1.783,     0.000,     0.000,     0.000,     0.000,   1,    1,  0,     0.000,     0.000,   0
   410,'2 ',   0,  21,  52,    14.099,     6.455,     0.000,     0.000,     0.000,     0.000,   1,    1,  0,     0.000,     0.000,   0
   410,'3 ',   0,  21,  52,     0.134,     0.551,     0.000,     0.000,     0.000,     0.000,   1,    1,  0,     0.000,     0.000,   0
   416,'1 ',   1,  21,  52,     0.540,     0.202,     0.000,     0.000,     0.000,     0.000,   1,    1,  0,     0.000,     0.000,   0
   418,'1 ',   1,  21,  52,    16.300,     7.000,     0.000,     0.000,     0.000,     0.000,   1,    0,  0,     0.000,     0.000,   0
   420,'1 ',   1,  21,  52,     6.189,     2.761,     0.000,     0.000,     0.000,     0.000,   1,    1,  0,     0.000,     0.000,   0
   420,'2 ',   0,  21,  52,     6.218,     2.537,     0.000,     0.000,     0.000,     0.000,   1,    1,  0,     0.000,     0.000,   0
   420,'3 ',   0,  21,  52,     4.900,     2.000,     0.000,     0.000,     0.000,     0.000,   1,    1,  0,     0.000,     0.000,   0
   422,'1 ',   1,  21,  52,     5.185,     1.381,     0.000,     0.000,     0.000,     0.000,   1,    1,  0,     0.000,     0.000,   0
   440,'1 ',   1,  21,  52,     3.038,     1.757,     0.000,     0.000,     0.000,     0.000,   1,    1,  0,     0.000,     0.000,   0
   440,'2 ',   0,  21,  52,    12.500,     4.000,     0.000,     0.000,     0.000,     0.000,   1,    1,  0,     0.000,     0.000,   0
   440,'3 ',   0,  21,  52,    14.988,     4.265,     0.000,     0.000,     0.000,     0.000,   1,    1,  0,     0.000,     0.000,   0
   441,'1 ',   1,  21,  52,     4.029,     1.658,     0.000,     0.000,     0.000,     0.000,   1,    1,  0,     0.000,     0.000,   0
   442,'1 ',   1,  21,  52,     4.895,     3.375,     0.000,     0.000,     0.000,     0.000,   1,    1,  0,     0.000,     0.000,   0
   442,'2 ',   0,  21,  52,     5.571,     2.551,     0.000,     0.000,     0.000,     0.000,   1,    1,  0,     0.000,     0.000,   0
   442,'3 ',   0,  21,  52,     2.500,     1.428,     0.000,     0.000,     0.000,     0.000,   1,    1,  0,     0.000,     0.000,   0
   444,'1 ',   1,  21,  52,     6.341,     1.414,     0.000,     0.000,     0.000,     0.000,   1,    1,  0,     0.000,     0.000,   0
   444,'2 ',   0,  21,  52,    12.166,     5.570,     0.000,     0.000,     0.000,     0.000,   1,    1,  0,     0.000,     0.000,   0
   444,'3 ',   0,  21,  52,     3.500,     0.658,     0.000,     0.000,     0.000,     0.000,   1,    1,  0,     0.000,     0.000,   0
   445,'1 ',   1,  21,  52,     4.426,     1.407,     0.000,     0.000,     0.000,     0.000,   1,    1,  0,     0.000,     0.000,   0
   445,'2 ',   0,  21,  52,     9.096,     4.165,     0.000,     0.000,     0.000,     0.000,   1,    1,  0,     0.000,     0.000,   0
   445,'3 ',   0,  21,  52,     3.500,     0.000,     0.000,     0.000,     0.000,     0.000,   1,    1,  0,     0.000,     0.000,   0
   446,'1 ',   1,  21,  52,    18.099,     9.968,     0.000,     0.000,     0.000,     0.000,   1,    1,  0,     0.000,     0.000,   0
   447,'1 ',   0,  21,  52,    23.200,    11.800,     0.000,     0.000,     0.000,     0.000,   1,    1,  0,     0.000,     0.000,   0
   447,'2 ',   0,  21,  52,    27.288,    12.494,     0.000,     0.000,     0.000,     0.000,   1,    1,  0,     0.000,     0.000,   0
   447,'3 ',   0,  21,  52,     3.000,     1.342,     0.000,     0.000,     0.000,     0.000,   1,    1,  0,     0.000,     0.000,   0
   448,'1 ',   1,  21,  52,    25.913,    14.895,     0.000,     0.000,     0.000,     0.000,   1,    1,  0,     0.000,     0.000,   0
   448,'2 ',   0,  21,  52,    26.500,    11.661,     0.000,     0.000,     0.000,     0.000,   1,    1,  0,     0.000,     0.000,   0
   448,'3 ',   0,  21,  52,    10.299,     5.199,     0.000,     0.000,     0.000,     0.000,   1,    1,  0,     0.000,     0.000,   0
   450,'1 ',   0,  21,  52,    30.100,    15.400,     0.000,     0.000,     0.000,     0.000,   1,    1,  0,     0.000,     0.000,   0
   450,'2 ',   0,  21,  52,     0.000,     0.000,     0.000,     0.000,     0.000,     0.000,   1,    1,  0,     0.000,     0.000,   0
   450,'3 ',   0,  21,  52,     0.000,     0.000,     0.000,     0.000,     0.000,     0.000,   1,    1,  0,     0.000,     0.000,   0
   450,'4 ',   1,  21,  52,    10.701,     2.953,     0.000,     0.000,     0.000,     0.000,   1,    1,  0,     0.000,     0.000,   0
   451,'1 ',   1,  21,  52,     1.717,     0.172,     0.000,     0.000,     0.000,     0.000,   1,    1,  0,     0.000,     0.000,   0
   454,'1 ',   1,  21,  52,     0.000,     0.000,     0.000,     0.000,     0.000,     0.000,   1,    1,  0,     0.000,     0.000,   0
   456,'1 ',   1,  21,  52,     5.991,     2.444,     0.000,     0.000,     0.000,     0.000,   1,    1,  0,     0.000,     0.000,   0
   457,'1 ',   1,  21,  52,    16.500,     4.500,     0.000,     0.000,     0.000,     0.000,   2,    0,  0,     0.000,     0.000,   0
   459,'2 ',   0,  21,  52,     5.276,     1.803,     0.000,     0.000,     0.000,     0.000,   1,    1,  0,     0.000,     0.000,   0
   459,'3 ',   0,  21,  52,     7.732,     3.575,     0.000,     0.000,     0.000,     0.000,   1,    1,  0,     0.000,     0.000,   0
   460,'1 ',   1,  21,  52,     9.571,     3.778,     0.000,     0.000,     0.000,     0.000,   1,    1,  0,     0.000,     0.000,   0
   462,'1 ',   0,  21,  52,    27.630,    11.790,     0.000,     0.000,     0.000,     0.000,   1,    1,  0,     0.000,     0.000,   0
   463,'1 ',   1,  21,  52,     1.916,     1.460,     0.000,     0.000,     0.000,     0.000,   1,    1,  0,     0.000,     0.000,   0
   463,'2 ',   0,  21,  52,    15.000,     5.000,     0.000,     0.000,     0.000,     0.000,   1,    1,  0,     0.000,     0.000,   0
   467,'1 ',   1,  21,  52,     1.651,     0.542,     0.000,     0.000,     0.000,     0.000,   1,    1,  0,     0.000,     0.000,   0
   472,'1 ',   1,  21,  52,     0.000,     0.000,     0.000,     0.000,     0.000,     0.000,   1,    1,  0,     0.000,     0.000,   0
   472,'2 ',   0,  21,  52,     0.000,     0.000,     0.000,     0.000,     0.000,     0.000,   1,    1,  0,     0.000,     0.000,   0
   480,'1 ',   1,  21,  52,     2.735,     1.328,     0.000,     0.000,     0.000,     0.000,   1,    1,  0,     0.000,     0.000,   0
   481,'1 ',   0,  21,  52,     4.700,     3.500,     0.000,     0.000,     0.000,     0.000,   1,    1,  0,     0.000,     0.000,   0
   482,'1 ',   1,  21,  53,     6.000,     3.600,     0.000,     0.000,     0.000,     0.000,   2,    0,  0,     0.000,     0.000,   0
   520,'1 ',   1,  21,  52,     4.360,     1.301,     0.000,     0.000,     0.000,     0.000,   1,    1,  0,     0.000,     0.000,   0
   522,'1 ',   1,  21,  52,     3.765,     2.312,     0.000,     0.000,     0.000,     0.000,   1,    1,  0,     0.000,     0.000,   0
   523,'1 ',   1,  21,  53,    11.000,     3.000,     0.000,     0.000,     0.000,     0.000,   3,    0,  0,     0.000,     0.000,   0
   524,'1 ',   1,  21,  52,     1.830,     0.879,     0.000,     0.000,     0.000,     0.000,   1,    1,  0,     0.000,     0.000,   0
   525,'1 ',   1,  21,  53,    11.000,     3.000,     0.000,     0.000,     0.000,     0.000,   3,    0,  0,     0.000,     0.000,   0
   556,'2 ',   1,  21,  53,     2.833,     1.369,     0.000,     0.000,     0.000,     0.000,   1,    1,  0,     0.000,     0.000,   0
   721,'1 ',   1,  21,  53,     4.888,     1.717,     0.000,     0.000,     0.000,     0.000,   1,    1,  0,     0.000,     0.000,   0
  1201,'1 ',   1,   7,  26,     3.035,     1.012,     0.000,     0.000,     0.000,     0.000,   1,    1,  0,     0.000,     0.000,   0
  1205,'1 ',   1,   7,  26,     2.698,     0.877,     0.000,     0.000,     0.000,     0.000,   1,    1,  0,     0.000,     0.000,   0
  1207,'1 ',   0,   7,  27,    17.628,     5.788,     0.000,     0.000,     0.000,     0.000,   1,    1,  0,     0.000,     0.000,   0
  1208,'1 ',   1,   7,  26,     1.052,     0.621,     0.000,     0.000,     0.000,     0.000,   1,    1,  0,     0.000,     0.000,   0
  1213,'1 ',   1,   7,  26,     8.000,     2.500,     0.000,     0.000,     0.000,     0.000,   2,    0,  0,     0.000,     0.000,   0
  1215,'1 ',   1,   7,  27,     0.595,     0.245,     0.000,     0.000,     0.000,     0.000,   1,    1,  0,     0.000,     0.000,   0
  1216,'1 ',   1,   7,  27,     8.880,     3.723,     0.000,     0.000,     0.000,     0.000,   1,    1,  0,     0.000,     0.000,   0
  1222,'1 ',   1,   7,  27,    19.000,     7.800,     0.000,     0.000,     0.000,     0.000,   2,    0,  0,     0.000,     0.000,   0
  1223,'1 ',   1,   7,  26,    27.000,     7.330,     0.000,     0.000,     0.000,     0.000,   2,    0,  0,     0.000,     0.000,   0
  1228,'1 ',   1,   7,  27,     1.349,     0.546,     0.000,     0.000,     0.000,     0.000,   1,    1,  0,     0.000,     0.000,   0
  1229,'1 ',   1,   7,  26,     6.812,     3.710,     0.000,     0.000,     0.000,     0.000,   1,    1,  0,     0.000,     0.000,   0
  1230,'1 ',   1,   7,  26,     3.947,     1.622,     0.000,     0.000,     0.000,     0.000,   1,    1,  0,     0.000,     0.000,   0
  1234,'1 ',   1,   7,  27,     7.134,     2.338,     0.000,     0.000,     0.000,     0.000,   1,    1,  0,     0.000,     0.000,   0
  1235,'1 ',   1,   7,  26,     7.929,     2.758,     0.000,     0.000,     0.000,     0.000,   1,    1,  0,     0.000,     0.000,   0
  1236,'1 ',   1,   7,  27,     3.289,     1.352,     0.000,     0.000,     0.000,     0.000,   1,    1,  0,     0.000,     0.000,   0
  1240,'1 ',   1,   7,  27,     2.428,     1.147,     0.000,     0.000,     0.000,     0.000,  10,    1,  0,     0.000,     0.000,   0
  1246,'1 ',   1,   7,  27,     0.786,     0.323,     0.000,     0.000,     0.000,     0.000,   1,    1,  0,     0.000,     0.000,   0
  1248,'1 ',   1,   7,  25,     3.283,     2.589,     0.000,     0.000,     0.000,     0.000,   1,    1,  0,     0.000,     0.000,   0
  1249,'1 ',   1,   7,  26,     4.317,     2.361,     0.000,     0.000,     0.000,     0.000,   1,    1,  0,     0.000,     0.000,   0
  1250,'1 ',   1,   7,  25,    20.307,     5.831,     0.000,     0.000,     0.000,     0.000,   1,    1,  0,     0.000,     0.000,   0
  1252,'1 ',   1,   7,  26,    15.457,     4.096,     0.000,     0.000,     0.000,     0.000,   1,    1,  0,     0.000,     0.000,   0
  1254,'1 ',   1,   7,  27,    23.021,    12.410,     0.000,     0.000,     0.000,     0.000,   1,    1,  0,     0.000,     0.000,   0
  1256,'1 ',   1,   7,  25,     4.478,     1.904,     0.000,     0.000,     0.000,     0.000,   1,    1,  0,     0.000,     0.000,   0
  1257,'1 ',   0,   7,  25,     7.890,     4.177,     0.000,     0.000,     0.000,     0.000,   1,    1,  0,     0.000,     0.000,   0
  1261,'1 ',   1,   7,  27,     3.369,     1.103,     0.000,     0.000,     0.000,     0.000,   1,    1,  0,     0.000,     0.000,   0
  1262,'1 ',   1,   7,  27,     2.402,     0.969,     0.000,     0.000,     0.000,     0.000,   1,    1,  0,     0.000,     0.000,   0
  1264,'1 ',   1,   7,  26,     6.578,     2.703,     0.000,     0.000,     0.000,     0.000,   1,    1,  0,     0.000,     0.000,   0
  1266,'1 ',   1,   7,  27,     0.723,     0.297,     0.000,     0.000,     0.000,     0.000,   1,    1,  0,     0.000,     0.000,   0
  1267,'1 ',   1,   7,  27,     1.478,     0.581,     0.000,     0.000,     0.000,     0.000,   1,    1,  0,     0.000,     0.000,   0
  1270,'1 ',   1,   7,  27,     0.340,     0.140,     0.000,     0.000,     0.000,     0.000,   1,    1,  0,     0.000,     0.000,   0
  1271,'1 ',   1,   7,  25,     0.793,     0.264,     0.000,     0.000,     0.000,     0.000,   1,    1,  0,     0.000,     0.000,   0
  1272,'1 ',   1,   7,  26,     0.640,     0.313,     0.000,     0.000,     0.000,     0.000,   1,    1,  0,     0.000,     0.000,   0
  1274,'1 ',   1,   7,  27,     7.630,     1.610,     0.000,     0.000,     0.000,     0.000,   1,    1,  0,     0.000,     0.000,   0
  1275,'1 ',   1,   7,  25,     0.400,     0.100,     0.000,     0.000,     0.000,     0.000,   3,    0,  0,     0.000,     0.000,   0
  1278,'1 ',   1,   7,  27,     3.947,     1.622,     0.000,     0.000,     0.000,     0.000,   1,    1,  0,     0.000,     0.000,   0
  1280,'1 ',   1,   7,  27,     3.000,     1.000,     0.000,     0.000,     0.000,     0.000,   2,    0,  0,     0.000,     0.000,   0
  1283,'1 ',   1,   7,  27,     3.963,     1.301,     0.000,     0.000,     0.000,     0.000,   1,    1,  0,     0.000,     0.000,   0
  1290,'1 ',   1,   7,  26,     1.173,     0.482,     0.000,     0.000,     0.000,     0.000,   1,    1,  0,     0.000,     0.000,   0
  1291,'1 ',   1,   7,  25,     7.619,     2.504,     0.000,     0.000,     0.000,     0.000,   1,    1,  0,     0.000,     0.000,   0
  1292,'1 ',   1,   7,  25,    15.760,     4.307,     0.000,     0.000,     0.000,     0.000,   1,    1,  0,     0.000,     0.000,   0
  1293,'1 ',   1,   7,  25,     5.735,     1.570,     0.000,     0.000,     0.000,     0.000,   1,    1,  0,     0.000,     0.000,   0
  1294,'1 ',   1,   7,  26,    12.100,     6.200,     0.000,     0.000,     0.000,     0.000,   2,    0,  0,     0.000,     0.000,   0
  1295,'1 ',   1,   7,  25,    13.215,     4.177,     0.000,     0.000,     0.000,     0.000,   1,    1,  0,     0.000,     0.000,   0
  1296,'1 ',   1,   7,  26,     7.367,     2.692,     0.000,     0.000,     0.000,     0.000,   1,    1,  0,     0.000,     0.000,   0
  1400,'1 ',   0,   7,  27,    21.000,     6.900,     0.000,     0.000,     0.000,     0.000,   1,    1,  0,     0.000,     0.000,   0
  1400,'S2',   0,   7,  27,     0.084,     0.063,     0.000,     0.000,     0.000,     0.000,   1,    1,  0,     0.000,     0.000,   0
  1500,'1 ',   1,   7,  27,     1.572,     0.646,     0.000,     0.000,     0.000,     0.000,   1,    1,  0,     0.000,     0.000,   0
  1501,'1 ',   1,   7,  27,     1.572,     0.646,     0.000,     0.000,     0.000,     0.000,   1,    1,  0,     0.000,     0.000,   0
  1503,'1 ',   1,   7,  27,     0.658,     0.134,     0.000,     0.000,     0.000,     0.000,   1,    1,  0,     0.000,     0.000,   0
  1504,'1 ',   1,   7,  27,    55.000,    25.000,     0.000,     0.000,     0.000,     0.000,   2,    0,  0,     0.000,     0.000,   0
  1508,'1 ',   1,   7,  25,     4.438,     1.747,     0.000,     0.000,     0.000,     0.000,   1,    1,  0,     0.000,     0.000,   0
  1514,'1 ',   1,   7,  26,    22.000,     6.333,     0.000,     0.000,     0.000,     0.000,   2,    0,  0,     0.000,     0.000,   0
  1530,'2 ',   0,   7,  27,    29.000,     9.500,     0.000,     0.000,     0.000,     0.000,   1,    1,  0,     0.000,     0.000,   0
  1543,'1 ',   1,   7,  27,     1.181,     0.485,     0.000,     0.000,     0.000,     0.000,   1,    1,  0,     0.000,     0.000,   0
  1544,'1 ',   1,   7,  27,     1.429,     0.587,     0.000,     0.000,     0.000,     0.000,   1,    1,  0,     0.000,     0.000,   0
  1547,'1 ',   1,   7,  27,     0.052,     0.021,     0.000,     0.000,     0.000,     0.000,   1,    1,  0,     0.000,     0.000,   0
  1548,'1 ',   1,   7,  27,     0.710,     0.292,     0.000,     0.000,     0.000,     0.000,   1,    1,  0,     0.000,     0.000,   0
  1549,'1 ',   1,   7,  27,     0.263,     0.108,     0.000,     0.000,     0.000,     0.000,   1,    1,  0,     0.000,     0.000,   0
  1561,'1 ',   0,   7,  26,     0.000,     0.000,     0.000,     0.000,     0.000,     0.000,   1,    1,  0,     0.000,     0.000,   0
  1563,'1 ',   1,   7,  27,     2.960,     1.635,     0.000,     0.000,     0.000,     0.000,   1,    1,  0,     0.000,     0.000,   0
  1566,'1 ',   1,   7,  26,     2.428,     0.809,     0.000,     0.000,     0.000,     0.000,   1,    1,  0,     0.000,     0.000,   0
  1568,'1 ',   1,   7,  26,     0.693,     0.284,     0.000,     0.000,     0.000,     0.000,   1,    1,  0,     0.000,     0.000,   0
  1570,'1 ',   1,   7,  26,     1.256,     0.516,     0.000,     0.000,     0.000,     0.000,   1,    1,  0,     0.000,     0.000,   0
  1572,'1 ',   1,   7,  26,     0.649,     0.267,     0.000,     0.000,     0.000,     0.000,   1,    1,  0,     0.000,     0.000,   0
  1574,'1 ',   1,   7,  26,    18.318,     7.923,     0.000,     0.000,     0.000,     0.000,   1,    1,  0,     0.000,     0.000,   0
  1581,'1 ',   1,   7,  26,     2.563,     0.809,     0.000,     0.000,     0.000,     0.000,   1,    1,  0,     0.000,     0.000,   0
  1606,'1 ',   1,   7,  27,    12.000,     6.000,     0.000,     0.000,     0.000,     0.000,   3,    0,  0,     0.000,     0.000,   0
  1610,'1 ',   1,   7,  25,     1.477,     0.580,     0.000,     0.000,     0.000,     0.000,   1,    1,  0,     0.000,     0.000,   0
  1620,'1 ',   1,   7,  27,    10.131,     4.164,     0.000,     0.000,     0.000,     0.000,   1,    1,  0,     0.000,     0.000,   0
  1644,'1 ',   1,   7,  26,    15.100,     6.900,     0.000,     0.000,     0.000,     0.000,   2,    0,  0,     0.000,     0.000,   0
  1647,'1 ',   1,   7,  26,    15.000,     5.000,     0.000,     0.000,     0.000,     0.000,   2,    0,  0,     0.000,     0.000,   0
  1818,'1 ',   1,   7,  27,    14.000,     6.000,     0.000,     0.000,     0.000,     0.000,   2,    0,  0,     0.000,     0.000,   0
  1823,'1 ',   1,   1,   2,     2.984,     0.981,     0.000,     0.000,     0.000,     0.000,   1,    1,  0,     0.000,     0.000,   0
  1840,'1 ',   1,   7,  27,     1.181,     0.485,     0.000,     0.000,     0.000,     0.000,   1,    1,  0,     0.000,     0.000,   0
  1841,'1 ',   1,   7,  27,     0.447,     0.183,     0.000,     0.000,     0.000,     0.000,   1,    1,  0,     0.000,     0.000,   0
  1850,'1 ',   1,   7,  26,     4.391,     1.824,     0.000,     0.000,     0.000,     0.000,   1,    1,  0,     0.000,     0.000,   0
  1851,'1 ',   0,   7,  26,     0.000,     0.000,     0.000,     0.000,     0.000,     0.000,   1,    1,  0,     0.000,     0.000,   0
  2200,'1 ',   1,   5,  22,    15.549,     7.212,     0.000,     0.000,     0.000,     0.000,   1,    1,  0,     0.000,     0.000,   0
  2204,'1 ',   1,   5,  21,     9.804,     5.595,     0.000,     0.000,     0.000,     0.000,   1,    1,  0,     0.000,     0.000,   0
  2210,'1 ',   1,   5,  22,    11.077,     4.868,     0.000,     0.000,     0.000,     0.000,   1,    1,  0,     0.000,     0.000,   0
  2212,'1 ',   1,   5,  22,     7.052,     3.606,     0.000,     0.000,     0.000,     0.000,   1,    1,  0,     0.000,     0.000,   0
  2215,'1 ',   1,   5,  21,    10.000,   -13.000,     0.000,     0.000,     0.000,     0.000,   2,    0,  0,     0.000,     0.000,   0
  2216,'1 ',   1,   5,  21,     6.745,     3.865,     0.000,     0.000,     0.000,     0.000,   1,    1,  0,     0.000,     0.000,   0
  2220,'1 ',   1,   5,  24,    18.000,     7.000,     0.000,     0.000,     0.000,     0.000,   2,    0,  0,     0.000,     0.000,   0
  2221,'1 ',   1,   5,  23,    45.000,    15.000,     0.000,     0.000,     0.000,     0.000,   2,    0,  0,     0.000,     0.000,   0
  2222,'1 ',   1,   5,  24,     3.314,     2.336,     0.000,     0.000,     0.000,     0.000,   1,    1,  0,     0.000,     0.000,   0
  2224,'1 ',   1,   5,  23,    33.139,    18.864,     0.000,     0.000,     0.000,     0.000,   1,    1,  0,     0.000,     0.000,   0
  2225,'1 ',   1,   5,  23,    12.500,     4.100,     0.000,     0.000,     0.000,     0.000,   2,    0,  0,     0.000,     0.000,   0
  2226,'1 ',   1,   5,  21,    13.256,     8.708,     0.000,     0.000,     0.000,     0.000,   1,    1,  0,     0.000,     0.000,   0
  2227,'1 ',   1,   5,  21,     7.067,     3.114,     0.000,     0.000,     0.000,     0.000,   1,    1,  0,     0.000,     0.000,   0
  2229,'1 ',   1,   5,  21,    10.567,     3.350,     0.000,     0.000,     0.000,     0.000,   1,    1,  0,     0.000,     0.000,   0
  2230,'1 ',   1,   5,  21,    24.111,    13.756,     0.000,     0.000,     0.000,     0.000,   1,    1,  0,     0.000,     0.000,   0
  2232,'1 ',   1,   5,  24,     4.800,     3.183,     0.000,     0.000,     0.000,     0.000,   1,    1,  0,     0.000,     0.000,   0
  2233,'1 ',   1,   5,  23,    20.398,     9.621,     0.000,     0.000,     0.000,     0.000,   1,    1,  0,     0.000,     0.000,   0
  2234,'1 ',   1,   5,  24,    11.713,     6.887,     0.000,     0.000,     0.000,     0.000,   1,    1,  0,     0.000,     0.000,   0
  2235,'1 ',   1,   5,  24,     5.428,     3.600,     0.000,     0.000,     0.000,     0.000,   1,    1,  0,     0.000,     0.000,   0
  2236,'1 ',   1,   5,  22,     5.160,     1.500,     0.000,     0.000,     0.000,     0.000,   1,    1,  0,     0.000,     0.000,   0
  2238,'1 ',   1,   5,  24,     2.893,     1.704,     0.000,     0.000,     0.000,     0.000,   1,    1,  0,     0.000,     0.000,   0
  2239,'1 ',   1,   5,  21,     4.991,     1.551,     0.000,     0.000,     0.000,     0.000,   1,    1,  0,     0.000,     0.000,   0
  2240,'1 ',   1,   5,  22,     1.720,     1.082,     0.000,     0.000,     0.000,     0.000,   1,    1,  0,     0.000,     0.000,   0
  2242,'1 ',   1,   5,  22,     6.536,     3.606,     0.000,     0.000,     0.000,     0.000,   1,    1,  0,     0.000,     0.000,   0
  2243,'1 ',   1,   5,  22,     6.536,     3.606,     0.000,     0.000,     0.000,     0.000,   1,    1,  0,     0.000,     0.000,   0
  2244,'1 ',   1,   5,  21,    11.011,     5.293,     0.000,     0.000,     0.000,     0.000,   1,    1,  0,     0.000,     0.000,   0
  2246,'1 ',   1,   5,  21,     5.808,     2.792,     0.000,     0.000,     0.000,     0.000,   1,    1,  0,     0.000,     0.000,   0
  2248,'1 ',   1,   5,  22,     6.880,     3.317,     0.000,     0.000,     0.000,     0.000,   1,    1,  0,     0.000,     0.000,   0
  2249,'1 ',   1,   5,  22,     8.325,     2.841,     0.000,     0.000,     0.000,     0.000,   1,    1,  0,     0.000,     0.000,   0
  2253,'1 ',   1,   5,  21,     4.192,     1.797,     0.000,     0.000,     0.000,     0.000,   1,    1,  0,     0.000,     0.000,   0
...
0 / END OF LOAD DATA, BEGIN FIXED SHUNT DATA
@!   I,'ID',STATUS,  GL,        BL
    85,'1 ',1,     0.000,  1540.000
    86,'1 ',1,     0.000,  2774.000
  1661,'1 ',1,     0.000,     0.000
  1662,'1 ',1,     0.000,     0.000
  1663,'1 ',1,     0.000,     0.000
  1664,'1 ',1,     0.000,     0.000
  1665,'1 ',1,     0.000,     0.000
  1666,'1 ',1,     0.000,     0.000
  1691,'1 ',1,     0.000,     0.000
  1692,'1 ',1,     0.000,     0.000
  2586,'1 ',1,     0.000,     0.000
  3213,'1 ',1,     0.000,    24.000
  3224,'1 ',1,     0.000,    12.000
  3229,'1 ',1,     0.000,    12.000
  3232,'1 ',1,     0.000,    12.000
  3260,'1 ',1,     0.000,    12.000
  3293,'1 ',1,     0.000,    12.000
  3294,'1 ',1,     0.000,    14.400
  3334,'1 ',1,     0.000,     6.000
  3336,'1 ',1,     0.000,     6.000
  3338,'1 ',1,     0.000,    24.000
  3342,'1 ',1,     0.000,    12.000
  3350,'1 ',1,     0.000,    12.000
  3360,'1 ',1,     0.000,    12.000
  3372,'1 ',1,     0.000,    18.000
  3375,'1 ',1,     0.000,    12.000
  3380,'1 ',1,     0.000,    18.000
  3382,'1 ',1,     0.000,    24.000
  3410,'1 ',1,     0.000,     9.600
  3448,'1 ',1,     0.000,    12.000
  3453,'1 ',1,     0.000,    12.000
  3466,'1 ',1,     0.000,    12.000
  3467,'1 ',1,     0.000,    12.000
  3471,'1 ',1,     0.000,    12.000
  3478,'1 ',1,     0.000,    12.000
 41202,'1 ',0,     0.000,    50.000
 41401,'1 ',1,     0.000,     6.000
 41402,'1 ',1,     0.000,    24.000
 41404,'1 ',1,     0.000,    12.000
 41405,'1 ',1,     0.000,    36.000
 41406,'1 ',1,     0.000,     6.000
 41407,'1 ',1,     0.000,     6.000
 41410,'1 ',1,     0.000,    24.000
 41411,'1 ',1,     0.000,     6.000
 41412,'1 ',1,     0.000,    24.000
 41414,'1 ',1,     0.000,     6.000
 41415,'1 ',1,     0.000,    24.000
 41419,'1 ',1,     0.000,    12.000
 41431,'1 ',1,     0.000,    24.000
 41432,'1 ',1,     0.000,    18.000
 41433,'1 ',1,     0.000,    12.000
 41434,'1 ',1,     0.000,    24.000
 41435,'1 ',1,     0.000,     6.000
 41437,'1 ',1,     0.000,     1.200
 41438,'1 ',1,     0.000,     6.000
 41439,'1 ',1,     0.000,    18.000
 41440,'1 ',1,     0.000,     6.000
 41442,'1 ',1,     0.000,     6.000
 41443,'1 ',1,     0.000,     9.000
 41444,'1 ',1,     0.000,    12.000
 41445,'1 ',1,     0.000,    12.000
 41448,'1 ',1,     0.000,     3.000
 41455,'1 ',1,     0.000,     6.000
 41459,'1 ',1,     0.000,    24.000
 41506,'1 ',1,     0.000,    12.000
 41511,'1 ',1,     0.000,    12.000
 41516,'1 ',1,     0.000,    12.000
 41545,'1 ',1,     0.000,     6.000
 42401,'1 ',1,     0.000,     6.000
 42403,'1 ',1,     0.000,     6.000
 42406,'1 ',0,     0.000,     6.000
 42407,'1 ',1,     0.000,    12.000
 42408,'1 ',0,     0.000,     6.000
 42409,'1 ',1,     0.000,    12.000
 42412,'1 ',0,     0.000,    12.000
 42413,'1 ',0,     0.000,    12.000
 42414,'1 ',0,     0.000,     6.000
 42415,'1 ',1,     0.000,    12.000
 42416,'1 ',1,     0.000,    12.000
 42417,'1 ',1,     0.000,     6.000
 42503,'1 ',1,     0.000,     6.000
 42512,'1 ',0,     0.000,     3.000
 42615,'1 ',1,     0.000,     6.000
 43403,'1 ',1,     0.000,     3.000
 43404,'1 ',1,     0.000,     6.000
 43405,'1 ',1,     0.000,     3.000
 43406,'1 ',1,     0.000,     6.000
 43407,'1 ',1,     0.000,     6.000
 43408,'1 ',1,     0.000,     6.000
 43412,'1 ',1,     0.000,    12.000
 43413,'1 ',1,     0.000,     3.000
 43414,'1 ',1,     0.000,    24.000
 43415,'1 ',1,     0.000,     6.000
 44400,'1 ',1,     0.000,     6.000
 44401,'1 ',1,     0.000,    12.000
 44402,'1 ',1,     0.000,     6.000
 44403,'1 ',1,     0.000,     6.000
 44404,'1 ',1,     0.000,     6.000
 44405,'1 ',1,     0.000,     6.000
 44409,'1 ',1,     0.000,     6.000
 44410,'1 ',1,     0.000,     3.000
 44413,'1 ',1,     0.000,     6.000
 45403,'1 ',0,     0.000,     6.000
 45404,'1 ',1,     0.000,    18.000
 45405,'1 ',0,     0.000,     6.000
 45406,'1 ',1,     0.000,     3.000
 46400,'1 ',0,     0.000,     3.000
 46401,'1 ',0,     0.000,     3.000
 90100,'1 ',1,     0.000,     3.308
 90160,'1 ',1,     0.000,     1.860
 90170,'1 ',1,     0.000,     1.993
 90200,'1 ',1,     0.000,     2.352
 90300,'1 ',1,     0.000,     2.666
 90481,'1 ',0,     0.000,     2.340
 90500,'1 ',1,     0.000,     5.561
 90511,'1 ',1,     0.000,     0.400
 90512,'1 ',1,     0.000,     0.400
 90513,'1 ',1,     0.000,     0.400
 90700,'1 ',1,     0.000,     1.732
 92401,'1 ',0,     0.000,    15.000
 95960,'1 ',1,     0.000,    39.998
0 / END OF FIXED SHUNT DATA, BEGIN GENERATOR DATA
@!   I,'ID',      PG,        QG,        QT,        QB,     VS,    IREG,     MBASE,     ZR,         ZX,         RT,         XT,     GTAP,STAT, RMPCT,      PT,        PB,    O1,    F1,  O2,    F2,  O3,    F3,  O4,    F4,WMOD, WPF,NREG
    30,'1 ',   906.837,   240.911,  9999.000, -9999.000,1.05000,    30,  1000.000, 1.26500E-2, 1.44500E-1, 0.00000E+0, 0.00000E+0,1.00000,0,  100.0,  1100.000, -1100.000,  10,1.0000
    87,'1 ', -5784.160,   853.406,  9999.000, -9999.000,1.05000,    87,100000.000, 0.00000E+0, 1.00000E+0, 0.00000E+0, 0.00000E+0,1.00000,1,  100.0,  9999.000, -9999.000,   1,1.0000
   102,'1 ',    90.000,   -47.000,    45.000,   -47.000,0.95000,   102,   140.000, 0.00000E+0, 2.20000E-1, 0.00000E+0, 0.00000E+0,1.00000,1,  100.0,   133.000,     0.000,   6,1.0000
   104,'1 ',    90.000,   -47.000,    45.000,   -47.000,0.95000,   104,   140.000, 0.00000E+0, 2.20000E-1, 0.00000E+0, 0.00000E+0,1.00000,1,  100.0,   133.000,     0.000,   6,1.0000
   106,'1 ',    90.000,   -26.801,    45.000,   -47.000,0.95000,   106,   140.000, 0.00000E+0, 2.20000E-1, 0.00000E+0, 0.00000E+0,1.00000,0,  100.0,   133.000,     0.000,   6,1.0000
   108,'1 ',    90.000,   -26.801,    45.000,   -47.000,0.95000,   108,   140.000, 0.00000E+0, 2.20000E-1, 0.00000E+0, 0.00000E+0,1.00000,0,  100.0,   133.000,     0.000,   6,1.0000
   190,'9 ',   100.000,    45.297,    99.600,   -40.800,1.00000,   259,   184.500, 0.00000E+0, 1.88000E-1, 0.00000E+0, 0.00000E+0,1.00000,1,  100.0,   165.000, -9999.000,   8,1.0000
   191,'10',   100.000,    45.297,    99.600,   -40.800,1.00000,   259,   184.500, 0.00000E+0, 1.88000E-1, 0.00000E+0, 0.00000E+0,1.00000,1,  100.0,   165.000, -9999.000,   8,1.0000
   192,'11',   100.000,    45.297,   114.000,   -80.000,1.00000,   259,   190.800, 0.00000E+0, 1.88000E-1, 0.00000E+0, 0.00000E+0,1.00000,1,  100.0,   140.000,    80.000,   8,1.0000
   201,'1 ',    18.000,    15.000,    15.000,   -14.000,1.05000,   201,    39.500, 0.00000E+0, 1.30000E-1, 0.00000E+0, 0.00000E+0,1.00000,1,  100.0,    20.000,     0.000,   4,1.0000
   202,'2 ',    19.999,    16.889,    20.000,   -14.000,1.05000,   202,    39.500, 0.00000E+0, 1.30000E-1, 0.00000E+0, 0.00000E+0,1.00000,1,  100.0,  9999.000,     0.000,   4,1.0000
   203,'3 ',    19.999,    16.889,    20.000,   -14.000,1.05000,   203,    39.500, 0.00000E+0, 1.30000E-1, 0.00000E+0, 0.00000E+0,1.00000,1,  100.0,  9999.000,     0.000,   4,1.0000
   204,'4 ',    20.000,    16.889,    20.000,   -14.000,1.05000,   204,    39.500, 0.00000E+0, 1.30000E-1, 0.00000E+0, 0.00000E+0,1.00000,1,  100.0,    20.000,     0.000,   4,1.0000
   205,'5 ',    38.000,    19.191,    22.000,    -6.000,1.05000,   205,    45.400, 0.00000E+0, 1.66000E-1, 0.00000E+0, 0.00000E+0,1.00000,1,  100.0,    38.200,     0.000,   4,1.0000
   206,'6 ',    32.000,    16.319,    20.000,    -6.000,1.03000,   206,    45.400, 0.00000E+0, 1.66000E-1, 0.00000E+0, 0.00000E+0,1.00000,1,  100.0,    38.200,     0.000,   4,1.0000
   207,'7 ',    38.000,    -6.077,    28.180,   -21.270,1.00000,   216,    48.200, 0.00000E+0, 1.69000E-1, 0.00000E+0, 0.00000E+0,1.00000,0,  100.0,    49.000,     0.000,   8,1.0000
   208,'8 ',    38.000,    -6.077,    28.181,   -21.273,1.00000,   216,    48.200, 0.00000E+0, 1.69000E-1, 0.00000E+0, 0.00000E+0,1.00000,0,  100.0,    49.000,     0.000,   8,1.0000
   209,'9 ',    32.000,    -6.077,    30.000,   -17.656,1.00000,   216,    50.350, 0.00000E+0, 1.83000E-1, 0.00000E+0, 0.00000E+0,1.00000,0,  100.0,    50.350,     0.000,   8,1.0000
   219,'21',    18.000,     7.511,    15.000,   -10.000,1.05000,   219,    31.500, 0.00000E+0, 1.50000E-1, 0.00000E+0, 0.00000E+0,1.00000,0,  100.0,    21.000, -9999.000,   4,1.0000
   219,'22',    18.000,     7.511,    15.000,   -10.000,1.05000,   219,    31.500, 0.00000E+0, 1.50000E-1, 0.00000E+0, 0.00000E+0,1.00000,0,  100.0,    21.000,     0.000,   4,1.0000
   242,'1 ',    -0.440,    -0.225,    -0.225,    -0.225,1.00000,   242,     0.543, 0.00000E+0, 1.57330E-1, 0.00000E+0, 0.00000E+0,1.00000,0,  100.0,  9999.000, -9999.000,   1,1.0000
   242,'2 ',    -0.659,    -0.338,    -0.338,    -0.338,1.00000,   242,     0.815, 0.00000E+0, 1.57330E-1, 0.00000E+0, 0.00000E+0,1.00000,0,  100.0,  9999.000, -9999.000,   1,1.0000
   242,'3 ',    -0.879,    -0.450,    -0.450,    -0.450,1.00000,   242,     1.087, 0.00000E+0, 1.57330E-1, 0.00000E+0, 0.00000E+0,1.00000,0,  100.0,  9999.000, -9999.000,   1,1.0000
   242,'4 ',   -11.962,    -3.730,    -3.730,    -3.730,1.00000,   242,    12.190, 0.00000E+0, 1.57330E-1, 0.00000E+0, 0.00000E+0,1.00000,0,  100.0,  9999.000, -9999.000,   1,1.0000
   251,'1 ',    10.000,    -0.463,    15.000,    -6.000,1.00000,   251,    29.200, 0.00000E+0, 2.10000E-1, 0.00000E+0, 0.00000E+0,1.00000,1,  100.0,    23.400,     0.000,   6,1.0000
   252,'2 ',    20.000,     1.589,    15.000,    -6.000,1.04000,   252,    29.200, 0.00000E+0, 2.10000E-1, 0.00000E+0, 0.00000E+0,1.00000,1,  100.0,    23.400,     0.000,   6,1.0000
   304,'1 ',     0.000,     0.000,     7.000,    -7.000,1.00000,   304,    20.000, 0.00000E+0, 1.80000E-1, 0.00000E+0, 0.00000E+0,1.00000,0,  100.0,  9999.000, -9999.000,   4,1.0000
   304,'2 ',     0.000,     0.000,     7.000,    -7.000,1.00000,   304,    20.000, 0.00000E+0, 1.80000E-1, 0.00000E+0, 0.00000E+0,1.00000,0,  100.0,  9999.000, -9999.000,   4,1.0000
   406,'1 ',    25.500,   -10.000,    15.000,   -10.000,1.00000,   406,    32.250, 0.00000E+0, 1.50000E-1, 0.00000E+0, 0.00000E+0,1.00000,0,  100.0,  9999.000, -9999.000,   4,1.0000
   406,'2 ',    25.000,     1.279,    10.000,    -5.000,1.00000,   406,    22.000, 0.00000E+0, 1.52000E-1, 0.00000E+0, 0.00000E+0,1.00000,0,  100.0,  9999.000, -9999.000,   4,1.0000
   409,'1 ',    11.500,    -0.202,    12.000,    -7.000,1.00000,   409,    22.500, 0.00000E+0, 1.50000E-1, 0.00000E+0, 0.00000E+0,1.00000,0,  100.0,  9999.000, -9999.000,   4,1.0000
   410,'1 ',    -0.681,    -0.288,    -0.288,    -0.288,1.00000,   410,     0.814, 0.00000E+0, 1.57330E-1, 0.00000E+0, 0.00000E+0,1.00000,0,  100.0,  9999.000, -9999.000,   1,1.0000
   410,'2 ',    -1.022,    -0.432,    -0.432,    -0.432,1.00000,   410,     1.220, 0.00000E+0, 1.57330E-1, 0.00000E+0, 0.00000E+0,1.00000,0,  100.0,  9999.000, -9999.000,   1,1.0000
   410,'3 ',    -1.362,    -0.576,    -0.576,    -0.576,1.00000,   410,     1.627, 0.00000E+0, 1.57330E-1, 0.00000E+0, 0.00000E+0,1.00000,0,  100.0,  9999.000, -9999.000,   1,1.0000
   410,'4 ',   -19.073,    -8.800,    -8.800,    -8.800,1.00000,   410,    28.000, 0.00000E+0, 1.57330E-1, 0.00000E+0, 0.00000E+0,1.00000,0,  100.0,  9999.000, -9999.000,   1,1.0000
   420,'1 ',    -1.004,    -0.428,    -0.428,    -0.428,1.00000,   420,     1.201, 0.00000E+0, 1.57330E-1, 0.00000E+0, 0.00000E+0,1.00000,0,  100.0,  9999.000, -9999.000,   1,1.0000
   420,'2 ',    -1.506,    -0.642,    -0.642,    -0.642,1.00000,   420,     1.801, 0.00000E+0, 1.57330E-1, 0.00000E+0, 0.00000E+0,1.00000,0,  100.0,  9999.000, -9999.000,   1,1.0000
...